      17
 i =       39, E =         0.0122550595
  C        17.6033183324       15.4250270502       15.0000819072
  C        16.3054355627       14.6067907268       15.0001421532
  C        14.9999955538       15.4277787802       15.0000581413
  C        13.6945671204       14.6067723198       15.0001180933
  H        16.3058766107       13.9458952312       15.8847189368
  H        16.3058926101       13.9457396458       14.1156816537
  H        18.4786519816       14.7554060935       15.0001487507
  H        17.6579541608       16.0665555336       14.1057979597
  H        17.6579379878       16.0667129422       15.8942538967
  H        14.9999827368       16.0887183688       15.8843080581
  H        14.9999990351       16.0885632775       14.1156923159
  C        12.3966728292       15.4249903616       15.0000342395
  H        13.6941355871       13.9457213968       14.1156574576
  H        13.6941191800       13.9458766413       15.8846947295
  H        11.5213485925       14.7553570798       15.0000847493
  H        12.3420276961       16.0666751659       15.8942054440
  H        12.3420444230       16.0665183849       14.1057495135
